*Heading
** Job name: F4_vs_Wall Model name: F4
** Generated by: Abaqus/CAE 2021
*Preprint, echo=NO, model=NO, history=NO, contact=NO
**
** PARTS
**
*Part, name=Part-18
*Node
      1,           0.,  -937.287231,   4376.91943
      2,    257.64093,  -908.161438,        4379.
      3,   326.301178,  -1260.44897,        5213.
      4,           0.,       -1302.,        5213.
      5,   -257.64093,  -908.161438,        4379.
      6,  -326.301178,  -1260.44897,        5213.
      7,         782.,           0.,       13965.
      8,        -782.,           0.,       13965.
      9,         673.,           0.,       17119.
     10,        -673.,           0.,       17119.
     11,   767.367065,   126.540695,       16500.
     12,  -767.367065,   126.540695,       16500.
     13,  -1140.87158,  -627.388367,       14050.
     14,  -1194.30737,  -648.468079,       12443.
     15,  -968.106384,  -483.212158,       11181.
     16,  -1048.36987,  -567.260559,        7912.
     17,  -1140.87158,  -627.388367,        5213.
     18,        -816.,           0.,        5213.
     19,  -1194.30737,   648.468079,       12443.
     20,  -968.106384,   483.212158,       11181.
** ... 3618 like lines cut
*Element, type=S4R
1,   1,   2, 107, 110
2, 110, 107, 108, 109
3, 109, 108,   3,   4
4,   5,   1, 110, 112
5, 112, 110, 109, 111
6, 111, 109,   4,   6
  7,    7,  113,  842,  859
  8,  113,  114,  843,  842
  9,  114,  115,  844,  843
 10,  115,  116,  845,  844
 11,  116,  117,  846,  845
 12,  117,  118,  847,  846
 13,  118,  119,  848,  847
 14,  119,  120,  849,  848
 15,  120,    8,  850,  849
 16,    8,  121,  851,  850
 17,  121,  122,  852,  851
 18,  122,  123,  853,  852
 19,  123,  124,  854,  853
 20,  124,  125,  855,  854
** ... 3610 like lines cut
*Nset, nset=Set-2, generate
    1,  3638,     1
*Elset, elset=Set-2, generate
    1,  3630,     1
** Section: Section-1
*Shell Section, elset=Set-2, material=Aluminium, controls=EC-1
3., 5
*End Part
**  
*Part, name=Part-19
*Node
      1,        5000.,        3000.,       15000.
      2,        5000.,        3000.,   15277.7773
      3,        5000.,        3000.,   15555.5557
      4,        5000.,        3000.,    15833.333
      5,        5000.,        3000.,   16111.1113
      6,        5000.,        3000.,   16388.8887
      7,        5000.,        3000.,    16666.666
      8,        5000.,        3000.,   16944.4453
      9,        5000.,        3000.,   17222.2227
     10,        5000.,        3000.,       17500.
     11,        5000.,        3000.,   17777.7773
     12,        5000.,        3000.,   18055.5547
     13,        5000.,        3000.,    18333.334
     14,        5000.,        3000.,   18611.1113
     15,        5000.,        3000.,   18888.8887
     16,        5000.,        3000.,    19166.666
     17,        5000.,        3000.,   19444.4453
     18,        5000.,        3000.,   19722.2227
     19,        5000.,        3000.,       20000.
     20,        5000.,   2724.13794,       15000.
** ... 21070 like lines cut
*Element, type=C3D8R
    1,   571,   572,   591,   590,     1,     2,    21,    20
    2,   572,   573,   592,   591,     2,     3,    22,    21
    3,   573,   574,   593,   592,     3,     4,    23,    22
    4,   574,   575,   594,   593,     4,     5,    24,    23
    5,   575,   576,   595,   594,     5,     6,    25,    24
    6,   576,   577,   596,   595,     6,     7,    26,    25
    7,   577,   578,   597,   596,     7,     8,    27,    26
    8,   578,   579,   598,   597,     8,     9,    28,    27
    9,   579,   580,   599,   598,     9,    10,    29,    28
   10,   580,   581,   600,   599,    10,    11,    30,    29
   11,   581,   582,   601,   600,    11,    12,    31,    30
   12,   582,   583,   602,   601,    12,    13,    32,    31
   13,   583,   584,   603,   602,    13,    14,    33,    32
   14,   584,   585,   604,   603,    14,    15,    34,    33
   15,   585,   586,   605,   604,    15,    16,    35,    34
   16,   586,   587,   606,   605,    16,    17,    36,    35
   17,   587,   588,   607,   606,    17,    18,    37,    36
   18,   588,   589,   608,   607,    18,    19,    38,    37
   19,   590,   591,   610,   609,    20,    21,    40,    39
   20,   591,   592,   611,   610,    21,    22,    41,    40
** ... 18772 like lines cut
*Nset, nset=Set-1, generate
     1,  21090,      1
*Elset, elset=Set-1, generate
     1,  18792,      1
** Section: Section-2
*Solid Section, elset=Set-1, controls=EC-2, material=Concrete
,
*End Part
**  
**
** ASSEMBLY
**
*Assembly, name=Assembly
**  
*Instance, name=Part-18-1, part=Part-18
          0.,           0.,        1000.
*End Instance
**  
*Instance, name=Part-19-1, part=Part-19
          0.,        2000.,        5000.
*End Instance
**  
*Nset, nset=Set-1, instance=Part-19-1
   552,   553,   554,   555,   556,   557,   558,   559,   560,   561,   562,   563,   564,   565,   566,   567
   568,   569,   570,  1122,  1123,  1124,  1125,  1126,  1127,  1128,  1129,  1130,  1131,  1132,  1133,  1134
  1135,  1136,  1137,  1138,  1139,  1140,  1692,  1693,  1694,  1695,  1696,  1697,  1698,  1699,  1700,  1701
  1702,  1703,  1704,  1705,  1706,  1707,  1708,  1709,  1710,  2262,  2263,  2264,  2265,  2266,  2267,  2268
  2269,  2270,  2271,  2272,  2273,  2274,  2275,  2276,  2277,  2278,  2279,  2280,  2832,  2833,  2834,  2835
  2836,  2837,  2838,  2839,  2840,  2841,  2842,  2843,  2844,  2845,  2846,  2847,  2848,  2849,  2850,  3402
  3403,  3404,  3405,  3406,  3407,  3408,  3409,  3410,  3411,  3412,  3413,  3414,  3415,  3416,  3417,  3418
  3419,  3420,  3972,  3973,  3974,  3975,  3976,  3977,  3978,  3979,  3980,  3981,  3982,  3983,  3984,  3985
  3986,  3987,  3988,  3989,  3990,  4542,  4543,  4544,  4545,  4546,  4547,  4548,  4549,  4550,  4551,  4552
  4553,  4554,  4555,  4556,  4557,  4558,  4559,  4560,  5112,  5113,  5114,  5115,  5116,  5117,  5118,  5119
  5120,  5121,  5122,  5123,  5124,  5125,  5126,  5127,  5128,  5129,  5130,  5682,  5683,  5684,  5685,  5686
  5687,  5688,  5689,  5690,  5691,  5692,  5693,  5694,  5695,  5696,  5697,  5698,  5699,  5700,  6252,  6253
  6254,  6255,  6256,  6257,  6258,  6259,  6260,  6261,  6262,  6263,  6264,  6265,  6266,  6267,  6268,  6269
  6270,  6822,  6823,  6824,  6825,  6826,  6827,  6828,  6829,  6830,  6831,  6832,  6833,  6834,  6835,  6836
  6837,  6838,  6839,  6840,  7392,  7393,  7394,  7395,  7396,  7397,  7398,  7399,  7400,  7401,  7402,  7403
  7404,  7405,  7406,  7407,  7408,  7409,  7410,  7962,  7963,  7964,  7965,  7966,  7967,  7968,  7969,  7970
  7971,  7972,  7973,  7974,  7975,  7976,  7977,  7978,  7979,  7980,  8532,  8533,  8534,  8535,  8536,  8537
  8538,  8539,  8540,  8541,  8542,  8543,  8544,  8545,  8546,  8547,  8548,  8549,  8550,  9102,  9103,  9104
  9105,  9106,  9107,  9108,  9109,  9110,  9111,  9112,  9113,  9114,  9115,  9116,  9117,  9118,  9119,  9120
  9672,  9673,  9674,  9675,  9676,  9677,  9678,  9679,  9680,  9681,  9682,  9683,  9684,  9685,  9686,  9687
** ... 24 like lines cut
*Elset, elset=Set-1, instance=Part-19-1
   505,   506,   507,   508,   509,   510,   511,   512,   513,   514,   515,   516,   517,   518,   519,   520
   521,   522,  1027,  1028,  1029,  1030,  1031,  1032,  1033,  1034,  1035,  1036,  1037,  1038,  1039,  1040
  1041,  1042,  1043,  1044,  1549,  1550,  1551,  1552,  1553,  1554,  1555,  1556,  1557,  1558,  1559,  1560
  1561,  1562,  1563,  1564,  1565,  1566,  2071,  2072,  2073,  2074,  2075,  2076,  2077,  2078,  2079,  2080
  2081,  2082,  2083,  2084,  2085,  2086,  2087,  2088,  2593,  2594,  2595,  2596,  2597,  2598,  2599,  2600
  2601,  2602,  2603,  2604,  2605,  2606,  2607,  2608,  2609,  2610,  3115,  3116,  3117,  3118,  3119,  3120
  3121,  3122,  3123,  3124,  3125,  3126,  3127,  3128,  3129,  3130,  3131,  3132,  3637,  3638,  3639,  3640
  3641,  3642,  3643,  3644,  3645,  3646,  3647,  3648,  3649,  3650,  3651,  3652,  3653,  3654,  4159,  4160
  4161,  4162,  4163,  4164,  4165,  4166,  4167,  4168,  4169,  4170,  4171,  4172,  4173,  4174,  4175,  4176
  4681,  4682,  4683,  4684,  4685,  4686,  4687,  4688,  4689,  4690,  4691,  4692,  4693,  4694,  4695,  4696
  4697,  4698,  5203,  5204,  5205,  5206,  5207,  5208,  5209,  5210,  5211,  5212,  5213,  5214,  5215,  5216
  5217,  5218,  5219,  5220,  5725,  5726,  5727,  5728,  5729,  5730,  5731,  5732,  5733,  5734,  5735,  5736
  5737,  5738,  5739,  5740,  5741,  5742,  6247,  6248,  6249,  6250,  6251,  6252,  6253,  6254,  6255,  6256
  6257,  6258,  6259,  6260,  6261,  6262,  6263,  6264,  6769,  6770,  6771,  6772,  6773,  6774,  6775,  6776
  6777,  6778,  6779,  6780,  6781,  6782,  6783,  6784,  6785,  6786,  7291,  7292,  7293,  7294,  7295,  7296
  7297,  7298,  7299,  7300,  7301,  7302,  7303,  7304,  7305,  7306,  7307,  7308,  7813,  7814,  7815,  7816
  7817,  7818,  7819,  7820,  7821,  7822,  7823,  7824,  7825,  7826,  7827,  7828,  7829,  7830,  8335,  8336
  8337,  8338,  8339,  8340,  8341,  8342,  8343,  8344,  8345,  8346,  8347,  8348,  8349,  8350,  8351,  8352
  8857,  8858,  8859,  8860,  8861,  8862,  8863,  8864,  8865,  8866,  8867,  8868,  8869,  8870,  8871,  8872
  8873,  8874,  9379,  9380,  9381,  9382,  9383,  9384,  9385,  9386,  9387,  9388,  9389,  9390,  9391,  9392
** ... 21 like lines cut
*Nset, nset=Set-2, instance=Part-18-1, generate
    1,  3638,     1
*Elset, elset=Set-2, instance=Part-18-1, generate
    1,  3630,     1
*Nset, nset=s_Set-3, instance=Part-18-1, generate
    1,  3638,     1
*Elset, elset=s_Set-3, instance=Part-18-1, generate
    1,  3630,     1
*Elset, elset=_m_Surf-1_S2, internal, instance=Part-19-1, generate
   1,  522,    1
*Elset, elset=_m_Surf-1_S4, internal, instance=Part-19-1, generate
    18,  18792,     18
*Elset, elset=_m_Surf-1_S1, internal, instance=Part-19-1, generate
 18271,  18792,      1
*Elset, elset=_m_Surf-1_S6, internal, instance=Part-19-1, generate
     1,  18775,     18
*Elset, elset=_m_Surf-1_S3, internal, instance=Part-19-1
     1,     2,     3,     4,     5,     6,     7,     8,     9,    10,    11,    12,    13,    14,    15,    16
    17,    18,   523,   524,   525,   526,   527,   528,   529,   530,   531,   532,   533,   534,   535,   536
   537,   538,   539,   540,  1045,  1046,  1047,  1048,  1049,  1050,  1051,  1052,  1053,  1054,  1055,  1056
  1057,  1058,  1059,  1060,  1061,  1062,  1567,  1568,  1569,  1570,  1571,  1572,  1573,  1574,  1575,  1576
  1577,  1578,  1579,  1580,  1581,  1582,  1583,  1584,  2089,  2090,  2091,  2092,  2093,  2094,  2095,  2096
  2097,  2098,  2099,  2100,  2101,  2102,  2103,  2104,  2105,  2106,  2611,  2612,  2613,  2614,  2615,  2616
  2617,  2618,  2619,  2620,  2621,  2622,  2623,  2624,  2625,  2626,  2627,  2628,  3133,  3134,  3135,  3136
  3137,  3138,  3139,  3140,  3141,  3142,  3143,  3144,  3145,  3146,  3147,  3148,  3149,  3150,  3655,  3656
  3657,  3658,  3659,  3660,  3661,  3662,  3663,  3664,  3665,  3666,  3667,  3668,  3669,  3670,  3671,  3672
  4177,  4178,  4179,  4180,  4181,  4182,  4183,  4184,  4185,  4186,  4187,  4188,  4189,  4190,  4191,  4192
  4193,  4194,  4699,  4700,  4701,  4702,  4703,  4704,  4705,  4706,  4707,  4708,  4709,  4710,  4711,  4712
  4713,  4714,  4715,  4716,  5221,  5222,  5223,  5224,  5225,  5226,  5227,  5228,  5229,  5230,  5231,  5232
  5233,  5234,  5235,  5236,  5237,  5238,  5743,  5744,  5745,  5746,  5747,  5748,  5749,  5750,  5751,  5752
  5753,  5754,  5755,  5756,  5757,  5758,  5759,  5760,  6265,  6266,  6267,  6268,  6269,  6270,  6271,  6272
  6273,  6274,  6275,  6276,  6277,  6278,  6279,  6280,  6281,  6282,  6787,  6788,  6789,  6790,  6791,  6792
  6793,  6794,  6795,  6796,  6797,  6798,  6799,  6800,  6801,  6802,  6803,  6804,  7309,  7310,  7311,  7312
  7313,  7314,  7315,  7316,  7317,  7318,  7319,  7320,  7321,  7322,  7323,  7324,  7325,  7326,  7831,  7832
  7833,  7834,  7835,  7836,  7837,  7838,  7839,  7840,  7841,  7842,  7843,  7844,  7845,  7846,  7847,  7848
  8353,  8354,  8355,  8356,  8357,  8358,  8359,  8360,  8361,  8362,  8363,  8364,  8365,  8366,  8367,  8368
  8369,  8370,  8875,  8876,  8877,  8878,  8879,  8880,  8881,  8882,  8883,  8884,  8885,  8886,  8887,  8888
** ... 21 like lines cut
*Elset, elset=_m_Surf-1_S5, internal, instance=Part-19-1
   505,   506,   507,   508,   509,   510,   511,   512,   513,   514,   515,   516,   517,   518,   519,   520
   521,   522,  1027,  1028,  1029,  1030,  1031,  1032,  1033,  1034,  1035,  1036,  1037,  1038,  1039,  1040
  1041,  1042,  1043,  1044,  1549,  1550,  1551,  1552,  1553,  1554,  1555,  1556,  1557,  1558,  1559,  1560
  1561,  1562,  1563,  1564,  1565,  1566,  2071,  2072,  2073,  2074,  2075,  2076,  2077,  2078,  2079,  2080
  2081,  2082,  2083,  2084,  2085,  2086,  2087,  2088,  2593,  2594,  2595,  2596,  2597,  2598,  2599,  2600
  2601,  2602,  2603,  2604,  2605,  2606,  2607,  2608,  2609,  2610,  3115,  3116,  3117,  3118,  3119,  3120
  3121,  3122,  3123,  3124,  3125,  3126,  3127,  3128,  3129,  3130,  3131,  3132,  3637,  3638,  3639,  3640
  3641,  3642,  3643,  3644,  3645,  3646,  3647,  3648,  3649,  3650,  3651,  3652,  3653,  3654,  4159,  4160
  4161,  4162,  4163,  4164,  4165,  4166,  4167,  4168,  4169,  4170,  4171,  4172,  4173,  4174,  4175,  4176
  4681,  4682,  4683,  4684,  4685,  4686,  4687,  4688,  4689,  4690,  4691,  4692,  4693,  4694,  4695,  4696
  4697,  4698,  5203,  5204,  5205,  5206,  5207,  5208,  5209,  5210,  5211,  5212,  5213,  5214,  5215,  5216
  5217,  5218,  5219,  5220,  5725,  5726,  5727,  5728,  5729,  5730,  5731,  5732,  5733,  5734,  5735,  5736
  5737,  5738,  5739,  5740,  5741,  5742,  6247,  6248,  6249,  6250,  6251,  6252,  6253,  6254,  6255,  6256
  6257,  6258,  6259,  6260,  6261,  6262,  6263,  6264,  6769,  6770,  6771,  6772,  6773,  6774,  6775,  6776
  6777,  6778,  6779,  6780,  6781,  6782,  6783,  6784,  6785,  6786,  7291,  7292,  7293,  7294,  7295,  7296
  7297,  7298,  7299,  7300,  7301,  7302,  7303,  7304,  7305,  7306,  7307,  7308,  7813,  7814,  7815,  7816
  7817,  7818,  7819,  7820,  7821,  7822,  7823,  7824,  7825,  7826,  7827,  7828,  7829,  7830,  8335,  8336
  8337,  8338,  8339,  8340,  8341,  8342,  8343,  8344,  8345,  8346,  8347,  8348,  8349,  8350,  8351,  8352
  8857,  8858,  8859,  8860,  8861,  8862,  8863,  8864,  8865,  8866,  8867,  8868,  8869,  8870,  8871,  8872
  8873,  8874,  9379,  9380,  9381,  9382,  9383,  9384,  9385,  9386,  9387,  9388,  9389,  9390,  9391,  9392
** ... 21 like lines cut
*Surface, type=ELEMENT, name=m_Surf-1
_m_Surf-1_S2, S2
_m_Surf-1_S4, S4
_m_Surf-1_S6, S6
_m_Surf-1_S1, S1
_m_Surf-1_S3, S3
_m_Surf-1_S5, S5
*Elset, elset=_s_Surf-1_SNEG, internal, instance=Part-18-1, generate
    1,  3630,     1
*Surface, type=ELEMENT, name=s_Surf-1
_s_Surf-1_SNEG, SNEG
*End Assembly
** 
** ELEMENT CONTROLS
** 
*Section Controls, name=EC-1, ELEMENT DELETION=YES
1., 1., 1.
*Section Controls, name=EC-2, ELEMENT DELETION=YES
1., 1., 1.
** 
** MATERIALS
** 
*Material, name=Aluminium
*Damage Initiation, criterion=JOHNSON COOK
 0.096,  0.049,  3.465,  0.016,  1.099,   557.,     0., 0.0005
*Damage Evolution, type=ENERGY
0.,
*Density
 2.7e-09,
*Elastic
70000., 0.3
*Plastic, hardening=JOHNSON COOK
520., 477., 0.52,   1., 893.,   0.
*Material, name=Concrete
*Density
 2.4e-09,
*Elastic
20000., 0.2
*Concrete Damaged Plasticity
35.,  0.1, 1.16, 0.66,   0.
*Concrete Compression Hardening
    15.,       0.
 20.198,  7.5e-05
 30.001,  9.9e-05
 40.304, 0.000154
 50.008, 0.000762
 40.236, 0.002558
 20.236, 0.005675
  5.258, 0.011733
*Concrete Tension Stiffening
 1.999,       0.
 2.842,  0.00011
  1.87, 0.000211
 0.863, 0.000303
 0.226, 0.000691
 0.057, 0.001088
*Concrete Compression Damage
       0.,       0.
       0.,  7.5e-05
       0.,  9.9e-05
       0., 0.000154
       0., 0.000762
 0.195402, 0.002558
  0.59534, 0.005675
 0.894865, 0.011733
*Concrete Tension Damage
       0.,       0.
       0.,  0.00011
  0.34208, 0.000211
 0.696438, 0.000303
 0.920389, 0.000691
 0.980093, 0.001088
*Concrete Failure, TYPE=Strain
0.00108825908108108,0.011733119,0.980092892329345,0.894865033963175
** 
** INTERACTION PROPERTIES
** 
*Surface Interaction, name=IntProp-1
*Friction
0.,
*Surface Behavior, pressure-overclosure=HARD
** 
** PREDEFINED FIELDS
** 
** Name: Predefined Field-1   Type: Velocity
*Initial Conditions, type=VELOCITY
Set-2, 1, 0.
Set-2, 2, 0.
Set-2, 3, 222222.
** 
** INTERACTIONS
** 
** Interaction: Int-1
*Contact, op=NEW
*Contact Inclusions, ALL EXTERIOR
*Contact Property Assignment
 ,  , IntProp-1
** ----------------------------------------------------------------
** 
** STEP: Step-1
** 
*Step, name=Step-1, nlgeom=YES
*Dynamic, Explicit
, 1.
*Bulk Viscosity
0.06, 1.2
** 
** BOUNDARY CONDITIONS
** 
** Name: BC-1 Type: Displacement/Rotation
*Boundary
Set-1, 1, 1
Set-1, 2, 2
Set-1, 3, 3
Set-1, 4, 4
Set-1, 5, 5
Set-1, 6, 6
** 
** OUTPUT REQUESTS
** 
*Restart, write, number interval=1, time marks=NO
** 
** FIELD OUTPUT: F-Output-1
** 
*Output, field, time interval=0.0001
*Node Output
A, RF, U, V
*Element Output, directions=YES
DAMAGEC, DAMAGET, EVF, LE, PE, PEEQ, PEEQVAVG, PEVAVG, S, STATUS, SVAVG, TEMP
*Contact Output
CSTRESS, 
** 
** HISTORY OUTPUT: H-Output-1
** 
*Output, history, variable=PRESELECT
*End Step
